12
	Energy:      10.5736998
C         -3.76499        1.28647        0.00000
C         -3.56230       -0.09781        0.00000
C         -2.26213       -0.61441       -0.00000
C         -1.16465        0.25326        0.00000
C         -1.36734        1.63754        0.00000
C         -2.66751        2.15415       -0.00000
H         -2.82432        3.22507        0.00000
H         -4.77084        1.68613       -0.00000
H         -0.15880       -0.14640       -0.00000
H         -0.51830        2.30880       -0.00000
H         -4.41134       -0.76907       -0.00000
H         -2.10532       -1.68533        0.00000
