21
	Energy:      31.1595486
C          2.95232        4.39941        0.91515
C          2.96006        2.98995        0.89372
C          4.16747        2.27141        0.92205
C          4.18119        5.08162        0.96600
H          2.03706        2.43767        0.85609
C          5.39487        2.96735        0.97191
C          5.39121        4.38054        0.99344
H          4.20060        6.16489        0.98294
C          1.67721        5.18779        0.88514
O          0.45966        4.59937        0.81686
H          0.31876        3.64720        0.77517
O          1.72710        6.40774        0.92075
C          6.68022        5.12823        1.04449
C          6.69863        2.24750        1.00173
B          7.90560        3.00045        1.05008
N          7.81709        4.51359        1.06996
H          6.75552        1.16535        0.98733
H          6.66897        6.21354        1.05996
H          8.95583        2.46029        1.07422
S          4.12860        0.46358        0.89226
H          2.73025        0.31285        0.87783
